@<TRIPOS>MOLECULE
ligando
 49 48 0 0 0
SMALL
GASTEIGER
Energy = 0

@<TRIPOS>ATOM
      1  N          4.7930   27.6240    5.2700 N.4   506  LIG506      0.3857
      2  H3         4.8040   28.0030    6.2400 H     506  LIG506     -0.0890
      3  H2         3.8030   27.4070    5.0710 H     506  LIG506     -0.0890
      4  H1         5.1130   28.4360    4.7040 H     506  LIG506     -0.0890
      5  CA         5.7270   26.4560    5.1450 C.3   506  LIG506     -0.0046
      6  HA         5.3590   25.7430    5.8840 H     506  LIG506      0.0178
      7  C          7.1820   26.8360    5.4990 C.cat 506  LIG506      0.1991
      8  O          7.6840   27.8860    5.1170 O.2   506  LIG506     -0.2776
      9  CB         5.6260   25.8270    3.7400 C.3   506  LIG506     -0.0477
     10  HB3        4.6390   25.3610    3.6180 H     506  LIG506      0.0259
     11  HB2        6.3530   25.0150    3.6410 H     506  LIG506      0.0259
     12  CG         5.8600   26.8090    2.5870 C.3   506  LIG506      0.0481
     13  HG3        6.8650   27.2310    2.6570 H     506  LIG506      0.0378
     14  HG2        5.1600   27.6370    2.6810 H     506  LIG506      0.0378
     15  CD         5.6490   26.1740    1.2170 C.2   506  LIG506      0.3560
     16  OE1        4.5360   25.5930    1.0630 O.co2 506  LIG506     -0.2464
     17  OE2        6.3780   26.6080    0.2880 O.co2 506  LIG506     -0.2464
     18  N1         7.8650   25.8800    6.2180 N.am  506  LIG506     -0.3048
     19  HN         7.3810   25.0560    6.5770 H     506  LIG506      0.1494
     20  C1         9.2500   26.0820    6.6440 C.3   506  LIG506      0.1095
     21  H          9.6200   26.9930    6.1690 H     506  LIG506      0.0600
     22  C2        10.0930   24.9000    6.1280 C.cat 506  LIG506      0.2345
     23  O1        10.1890   23.8050    6.6880 O.2   506  LIG506     -0.2737
     24  C3         9.3830   26.2080    8.1530 C.3   506  LIG506      0.0760
     25  H4        10.4350   26.3150    8.4320 H     506  LIG506      0.0402
     26  H5         8.9860   25.3210    8.6550 H     506  LIG506      0.0402
     27  C4         8.6130   27.4440    8.5570 C.2   506  LIG506      0.3582
     28  OD1        9.2310   28.5360    8.4090 O.co2 506  LIG506     -0.2463
     29  OD2        7.4200   27.2010    8.9020 O.co2 506  LIG506     -0.2463
     30  N2        10.6900   25.1380    4.9070 N.am  506  LIG506     -0.3007
     31  H6        10.7940   26.0940    4.5520 H     506  LIG506      0.1496
     32  C5        11.5550   24.1660    4.2100 C.3   506  LIG506      0.1249
     33  H7        11.4090   23.2010    4.7140 H     506  LIG506      0.0616
     34  C6        13.1070   24.4330    4.2750 C.cat 506  LIG506      0.3758
     35  OT1       13.7080   23.3470    4.5390 O.co2 506  LIG506     -0.2443
     36  C7        11.0590   23.9630    2.7790 C.3   506  LIG506     -0.0216
     37  H8        11.7220   23.2740    2.2410 H     506  LIG506      0.0291
     38  H9        11.1620   24.9260    2.2700 H     506  LIG506      0.0291
     39  C8         9.5890   23.4500    2.7390 C.3   506  LIG506     -0.0445
     40  HG         9.0710   23.6560    3.6800 H     506  LIG506      0.0296
     41  CD1        8.8210   24.2260    1.6970 C.3   506  LIG506     -0.0626
     42 3HD1        7.8400   23.7850    1.5000 H     506  LIG506      0.0232
     43 2HD1        9.4160   24.2790    0.7830 H     506  LIG506      0.0232
     44 1HD1        8.6770   25.2590    2.0270 H     506  LIG506      0.0232
     45  CD2        9.5070   21.9390    2.5520 C.3   506  LIG506     -0.0626
     46 3HD2        8.5220   21.5640    2.8450 H     506  LIG506      0.0232
     47 2HD2        9.6960   21.6260    1.5210 H     506  LIG506      0.0232
     48 1HD2       10.2400   21.4520    3.2010 H     506  LIG506      0.0232
     49  OT2       13.4300   25.5070    4.8670 O.co2 506  LIG506     -0.2443
@<TRIPOS>BOND
     1    17    15   ar
     2    43    41    1
     3    16    15   ar
     4    15    12    1
     5    42    41    1
     6    47    45    1
     7    41    44    1
     8    41    39    1
     9    37    36    1
    10    38    36    1
    11    45    39    1
    12    45    46    1
    13    45    48    1
    14    12    13    1
    15    12    14    1
    16    12     9    1
    17    39    36    1
    18    39    40    1
    19    36    32    1
    20    10     9    1
    21    11     9    1
    22     9     5    1
    23    32    34    1
    24    32    33    1
    25    32    30    1
    26    34    35   ar
    27    34    49   ar
    28    31    30    1
    29     4     1    1
    30    30    22   am
    31     3     1    1
    32     8     7    2
    33     5     1    1
    34     5     7    1
    35     5     6    1
    36     1     2    1
    37     7    18   am
    38    22    20    1
    39    22    23    2
    40    21    20    1
    41    18    19    1
    42    18    20    1
    43    20    24    1
    44    24    25    1
    45    24    27    1
    46    24    26    1
    47    28    27   ar
    48    27    29   ar
