@<TRIPOS>MOLECULE
LS3
41 45 1 0 0
****
****


@<TRIPOS>ATOM
      1 O5        -10.9100   52.3530   11.7630 O.2       1 LS3    0.0000
      2 C6        -10.1870   51.8690   12.6200 C.2       1 LS3    0.0000
      3 N7         -9.6420   52.5270   13.6990 N.am      1 LS3    0.0000
      4 C8         -8.8130   51.6860   14.3930 C.ar      1 LS3    0.0000
      5 C9         -7.9970   51.9080   15.6130 C.ar      1 LS3    0.0000
      6 C10        -7.1340   50.7930   16.1090 C.ar      1 LS3    0.0000
      7 C11        -7.0150   49.4940   15.3550 C.ar      1 LS3    0.0000
      8 C12        -6.1390   48.4270   15.8200 C.ar      1 LS3    0.0000
      9 O13        -5.8340   48.2230   17.1420 O.3       1 LS3    0.0000
     10 C14        -5.1820   47.0170   17.1810 C.ar      1 LS3    0.0000
     11 N15        -4.8760   46.5750   15.9410 N.ar      1 LS3    0.0000
     12 C16        -5.4640   47.4140   15.0610 C.ar      1 LS3    0.0000
     13 C17        -7.8730   49.3310   14.1390 C.ar      1 LS3    0.0000
     14 C18        -8.7920   50.4060   13.7060 C.ar      1 LS3    0.0000
     15 C19        -9.7530   50.4380   12.6230 C.2       1 LS3    0.0000
     16 C20       -10.1730   49.4120   11.8460 C.2       1 LS3    0.0000
     17 N21       -10.9420   49.3820   10.5820 N.pl3     1 LS3    0.0000
     18 C22       -11.1170   48.2830    9.7730 C.ar      1 LS3    0.0000
     19 C23       -10.0100   47.3440    9.3940 C.ar      1 LS3    0.0000
     20 C24       -10.2970   46.1970    8.5330 C.ar      1 LS3    0.0000
     21 C25        -9.3360   45.1630    8.0910 C.3       1 LS3    0.0000
     22 S26        -9.9210   44.4500    6.5620 S.o2      1 LS3    0.0000
     23 O27        -9.6840   43.0320    6.5110 O.2       1 LS3    0.0000
     24 O28        -9.4570   45.3080    5.5090 O.2       1 LS3    0.0000
     25 C29       -11.6310   44.8710    6.9850 C.3       1 LS3    0.0000
     26 C30       -11.6380   45.9950    7.9680 C.ar      1 LS3    0.0000
     27 C31       -12.7620   46.8820    8.3510 C.ar      1 LS3    0.0000
     28 C32       -12.4880   48.0360    9.2410 C.ar      1 LS3    0.0000
     29 H9         -8.0263   52.8551   16.1312 H         1 LS3    0.0000
     30 H10        -6.5831   50.9214   17.0290 H         1 LS3    0.0000
     31 H14        -4.9426   46.4860   18.0905 H         1 LS3    0.0000
     32 H16        -5.4319   47.3365   13.9843 H         1 LS3    0.0000
     33 H17        -7.8201   48.4149   13.5695 H         1 LS3    0.0000
     34 H20        -9.8960   48.4362   12.2167 H         1 LS3    0.0000
     35 H23        -9.0064   47.5141    9.7550 H         1 LS3    0.0000
     36 H252       -9.2586   44.3859    8.8515 H         1 LS3    0.0000
     37 H253       -8.3580   45.6172    7.9318 H         1 LS3    0.0000
     38 H292      -12.1643   45.1733    6.0837 H         1 LS3    0.0000
     39 H293      -12.1215   44.0018    7.4232 H         1 LS3    0.0000
     40 H31       -13.7615   46.6915    7.9888 H         1 LS3    0.0000
     41 H32       -13.2918   48.7063    9.5074 H         1 LS3    0.0000
@<TRIPOS>BOND
     1    1    2 2
     2    2    3 1
     3    2   15 1
     4    3    4 1
     5    4    5 ar
     6    4   14 ar
     7    5    6 ar
     8    6    7 ar
     9    7    8 ar
    10    7   13 ar
    11    8    9 ar
    12    8   12 ar
    13    9   10 ar
    14   10   11 ar
    15   11   12 ar
    16   13   14 ar
    17   14   15 1
    18   15   16 2
    19   16   17 1
    20   17   18 1
    21   18   19 ar
    22   18   28 ar
    23   19   20 ar
    24   20   21 1
    25   20   26 ar
    26   21   22 1
    27   22   23 2
    28   22   24 2
    29   22   25 1
    30   25   26 1
    31   26   27 ar
    32   27   28 ar
    33   29    5 1
    34   30    6 1
    35   31   10 1
    36   32   12 1
    37   33   13 1
    38   34   16 1
    39   35   19 1
    40   36   21 1
    41   37   21 1
    42   38   25 1
    43   39   25 1
    44   40   27 1
    45   41   28 1
@<TRIPOS>SUBSTRUCTURE
     1 LS3     1 RESIDUE           4 A     LS3     0 ROOT
