@<TRIPOS>MOLECULE
1fue.pdb
51 53 1 0 0
SMALL
AMBER ff14SB


@<TRIPOS>ATOM
      1 N1        -30.3530  -24.0790  -37.5720 N.am      1 FMN    0.0000
      2 C2        -31.5110  -24.1120  -38.3080 C.2       1 FMN    0.0000
      3 O2        -31.6970  -23.4360  -39.2810 O.2       1 FMN    0.0000
      4 N3        -32.5720  -25.0030  -37.9000 N.am      1 FMN    0.0000
      5 C4        -32.5210  -25.8320  -36.8220 C.2       1 FMN    0.0000
      6 O4        -33.4790  -26.5740  -36.5300 O.2       1 FMN    0.0000
      7 C4A       -31.2830  -25.7920  -36.0400 C.ar      1 FMN    0.0000
      8 N5        -31.1540  -26.5620  -34.9800 N.ar      1 FMN    0.0000
      9 C5A       -29.9990  -26.5210  -34.2530 C.ar      1 FMN    0.0000
     10 C6        -29.8640  -27.3780  -33.0720 C.ar      1 FMN    0.0000
     11 C7        -28.7530  -27.4070  -32.2810 C.ar      1 FMN    0.0000
     12 C7M       -28.6340  -28.3170  -31.0360 C.3       1 FMN    0.0000
     13 C8        -27.6050  -26.5340  -32.6270 C.ar      1 FMN    0.0000
     14 C8M       -26.3510  -26.5330  -31.7880 C.3       1 FMN    0.0000
     15 C9        -27.7180  -25.7070  -33.7540 C.ar      1 FMN    0.0000
     16 C9A       -28.8660  -25.6620  -34.5790 C.ar      1 FMN    0.0000
     17 N10       -29.0400  -24.8340  -35.7370 N.ar      1 FMN    0.0000
     18 C10       -30.2140  -24.8610  -36.4930 C.ar      1 FMN    0.0000
     19 C1'       -27.9570  -23.9050  -36.1750 C.3       1 FMN    0.0000
     20 C2'       -28.0950  -22.5510  -35.4760 C.3       1 FMN    0.0000
     21 O2'       -29.3480  -21.9160  -35.7480 O.3       1 FMN    0.0000
     22 C3'       -26.9970  -21.5520  -35.9040 C.3       1 FMN    0.0000
     23 O3'       -25.6880  -22.2090  -35.8630 O.3       1 FMN    0.0000
     24 C4'       -26.9470  -20.3080  -35.0290 C.3       1 FMN    0.0000
     25 O4'       -25.9110  -19.4270  -35.5330 O.3       1 FMN    0.0000
     26 C5'       -26.6290  -20.5710  -33.5510 C.3       1 FMN    0.0000
     27 O5'       -26.6240  -19.3170  -32.8400 O.3       1 FMN    0.0000
     28 P         -25.8330  -19.0560  -31.4940 P.3       1 FMN    0.0000
     29 O1P       -24.3680  -19.2610  -31.7810 O.co2     1 FMN    0.0000
     30 O2P       -26.3880  -19.9800  -30.4330 O.co2     1 FMN    0.0000
     31 O3P       -26.1570  -17.5540  -31.1530 O.co2     1 FMN    0.0000
     32 H1        -29.6016  -23.4619  -37.8453 H         1 FMN    0.0000
     33 H3        -33.4149  -25.0114  -38.4564 H         1 FMN    0.0000
     34 H6        -30.6907  -28.0230  -32.8133 H         1 FMN    0.0000
     35 H9        -26.8831  -25.0699  -34.0056 H         1 FMN    0.0000
     36 H1'       -28.0237  -23.7600  -37.2533 H         1 FMN    0.0000
     37 H1''      -26.9882  -24.3400  -35.9294 H         1 FMN    0.0000
     38 H2'       -28.0158  -22.7094  -34.4005 H         1 FMN    0.0000
     39 H3'       -27.1946  -21.2428  -36.9304 H         1 FMN    0.0000
     40 H4'       -27.9062  -19.7945  -35.0950 H         1 FMN    0.0000
     41 H5'       -27.3873  -21.2286  -33.1259 H         1 FMN    0.0000
     42 H5''      -25.6495  -21.0417  -33.4669 H         1 FMN    0.0000
     43 HO2'      -30.0655  -22.5022  -35.4968 H         1 FMN    0.0000
     44 H8M1      -25.6329  -25.8286  -32.2078 H         1 FMN    0.0000
     45 H8M2      -26.5967  -26.2366  -30.7682 H         1 FMN    0.0000
     46 H8M3      -25.9175  -27.5331  -31.7813 H         1 FMN    0.0000
     47 HO4'      -25.0558  -19.8530  -35.4399 H         1 FMN    0.0000
     48 H7M1      -29.5524  -28.8918  -30.9163 H         1 FMN    0.0000
     49 H7M2      -27.7930  -28.9986  -31.1635 H         1 FMN    0.0000
     50 H7M3      -28.4723  -27.7021  -30.1506 H         1 FMN    0.0000
     51 HO3'      -25.5452  -22.6888  -36.6822 H         1 FMN    0.0000
@<TRIPOS>BOND
     1    1    2 am
     2    1   18 1
     3    2    3 2
     4    2    4 am
     5    4    5 am
     6    5    6 2
     7    5    7 1
     8    7    8 ar
     9    7   18 ar
    10    8    9 ar
    11    9   10 ar
    12    9   16 ar
    13   10   11 ar
    14   11   12 1
    15   11   13 ar
    16   13   14 1
    17   13   15 ar
    18   15   16 ar
    19   16   17 ar
    20   17   18 ar
    21   17   19 1
    22   19   20 1
    23   20   21 1
    24   20   22 1
    25   22   23 1
    26   22   24 1
    27   24   25 1
    28   24   26 1
    29   26   27 1
    30   27   28 1
    31   28   29 1
    32   28   30 1
    33   28   31 1
    34   32    1 1
    35   33    4 1
    36   34   10 1
    37   35   15 1
    38   36   19 1
    39   37   19 1
    40   38   20 1
    41   39   22 1
    42   40   24 1
    43   41   26 1
    44   42   26 1
    45   43   21 1
    46   44   14 1
    47   45   14 1
    48   46   14 1
    49   47   25 1
    50   48   12 1
    51   49   12 1
    52   50   12 1
    53   51   23 1
@<TRIPOS>SUBSTRUCTURE
     1 FMN    24 RESIDUE           4 A     FMN     0 ROOT
